tests/data/upgrade-models/uo_load_2_scenario/opendss/dss_files/Loads.dss
New Load.1 bus1=e4bcf9d6-e0b7-421c-91d4-554d06c69364.1.2.3 kV=12.47 model=1 kW=9922.29544292327 kvar=2276.3306907187716 Phases=3 yearly=feature_1

New Load.2 bus1=53c917d8-b04d-4110-bdd9-cbf044e6a1fa.1.2.3 kV=0.48 model=1 kW=452.5386853458153 kvar=103.81949460342939 Phases=3 yearly=feature_2

New Load.3 bus1=67b07fac-6666-4954-98b8-3e08b0896646.1.2.3 kV=12.47 model=1 kW=2555.612939776071 kvar=586.2978180678308 Phases=3 yearly=feature_3

New Load.4 bus1=be6e5e58-e73e-4172-a939-250c6a7a3c2c.1.2.3 kV=0.48 model=1 kW=672.1706496115635 kvar=154.206522866889 Phases=3 yearly=feature_4

New Load.5 bus1=3d1aa47d-69dd-4200-ab34-9b6244ad82d7.1.2.3 kV=0.48 model=1 kW=24.318157892468914 kvar=5.578968039280946 Phases=3 yearly=feature_5

New Load.6 bus1=db52eea7-f395-4fb1-999d-47c82333a4a7.1.2.3 kV=0.48 model=1 kW=31.48356000571634 kvar=7.222824023569277 Phases=3 yearly=feature_6

New Load.7 bus1=9d037967-7ac1-4296-8f87-2d4a842d7a87.1.2.3 kV=0.48 model=1 kW=2021.8919892738504 kvar=463.8538345262702 Phases=3 yearly=feature_7

New Load.8 bus1=18fe5a25-2547-4c32-a225-8bd455e93c9b.1.2.3 kV=12.47 model=1 kW=4370.646383171284 kvar=1002.695047483956 Phases=3 yearly=feature_8

New Load.9 bus1=40867501-5a41-4626-a9d4-be5444a5b575.1.2.3 kV=12.47 model=1 kW=2760.155601690553 kvar=633.2231229587799 Phases=3 yearly=feature_9

New Load.10 bus1=44963046-644a-4c03-b81c-f65d80475015.1.2.3 kV=12.47 model=1 kW=11605.479593867653 kvar=2662.479617946975 Phases=3 yearly=feature_10

New Load.11 bus1=14072af7-3121-4e3d-b85f-c79868702ec9.1.2.3 kV=0.48 model=1 kW=691.3831611607104 kvar=158.61417530343314 Phases=3 yearly=feature_11

New Load.12 bus1=753b77b9-b88b-443f-9c3b-3cd977bb3558.1.2.3 kV=12.47 model=1 kW=2627.683312985844 kvar=602.831895628076 Phases=3 yearly=feature_12

New Load.13 bus1=38a42375-ff02-497e-90ef-c5d9eb78850e.1.2.3 kV=12.47 model=1 kW=2278.732194245278 kvar=522.7770186372557 Phases=3 yearly=feature_13

